CHEMBL218068
  -OEChem-07121202273D

 46 48  0     0  0  0  0  0  0999 V2000
   -0.0167    1.3781    0.0096 C   0  0  0  0  0  0  0  0  0  0  0  0
    1.1709    2.0855    0.0021 C   0  0  0  0  0  0  0  0  0  0  0  0
    2.3773    1.4107   -0.0130 C   0  0  0  0  0  0  0  0  0  0  0  0
    2.3960    0.0285   -0.0201 C   0  0  0  0  0  0  0  0  0  0  0  0
    1.2084   -0.6789   -0.0117 C   0  0  0  0  0  0  0  0  0  0  0  0
    0.0021   -0.0041    0.0020 C   0  0  0  0  0  0  0  0  0  0  0  0
    3.7112   -0.7071   -0.0376 C   0  0  0  0  0  0  0  0  0  0  0  0
    4.1410   -0.9464    1.3041 O   0  0  0  0  0  0  0  0  0  0  0  0
    5.3077   -1.5988    1.4650 C   0  0  0  0  0  0  0  0  0  0  0  0
    5.9435   -1.9553    0.4929 O   0  0  0  0  0  0  0  0  0  0  0  0
    5.7703   -1.8565    2.7044 N   0  0  0  0  0  0  0  0  0  0  0  0
    5.0098   -1.4371    3.8895 C   0  0  0  0  0  0  0  0  0  0  0  0
    4.7962   -2.6545    4.7946 C   0  0  0  0  0  0  0  0  0  0  0  0
    6.1501   -3.2941    5.1105 C   0  0  0  0  0  0  0  0  0  0  0  0
    6.8082   -3.7669    3.8123 C   0  0  0  0  0  0  0  0  0  0  0  0
    7.0417   -2.5675    2.8961 C   0  0  0  0  0  0  0  0  0  0  0  0
    5.9439   -4.4899    6.0424 C   0  0  0  0  0  0  0  0  0  0  0  0
    7.2466   -5.0291    6.4405 N   0  0  0  0  0  0  0  0  0  0  0  0
    7.3139   -6.1225    7.2885 C   0  0  0  0  0  0  0  0  0  0  0  0
    6.1467   -6.7230    7.7659 C   0  0  0  0  0  0  0  0  0  0  0  0
    6.2666   -7.8102    8.6087 C   0  0  0  0  0  0  0  0  0  0  0  0
    7.4757   -8.2455    8.9348 N   0  0  0  0  0  0  0  0  0  0  0  0
    8.5580   -7.6571    8.4675 C   0  0  0  0  0  0  0  0  0  0  0  0
    8.4905   -6.6206    7.6566 N   0  0  0  0  0  0  0  0  0  0  0  0
   -0.9591    1.9053    0.0259 H   0  0  0  0  0  0  0  0  0  0  0  0
    1.1563    3.1654    0.0076 H   0  0  0  0  0  0  0  0  0  0  0  0
    3.3051    1.9634   -0.0196 H   0  0  0  0  0  0  0  0  0  0  0  0
    1.2231   -1.7588   -0.0176 H   0  0  0  0  0  0  0  0  0  0  0  0
   -0.9258   -0.5567    0.0082 H   0  0  0  0  0  0  0  0  0  0  0  0
    3.5884   -1.6586   -0.5549 H   0  0  0  0  0  0  0  0  0  0  0  0
    4.4573   -0.1052   -0.5563 H   0  0  0  0  0  0  0  0  0  0  0  0
    5.5682   -0.6731    4.4305 H   0  0  0  0  0  0  0  0  0  0  0  0
    4.0439   -1.0371    3.5811 H   0  0  0  0  0  0  0  0  0  0  0  0
    4.3176   -2.3390    5.7217 H   0  0  0  0  0  0  0  0  0  0  0  0
    4.1613   -3.3795    4.2853 H   0  0  0  0  0  0  0  0  0  0  0  0
    6.7932   -2.5610    5.5976 H   0  0  0  0  0  0  0  0  0  0  0  0
    7.7618   -4.2433    4.0403 H   0  0  0  0  0  0  0  0  0  0  0  0
    6.1544   -4.4815    3.3122 H   0  0  0  0  0  0  0  0  0  0  0  0
    7.4160   -2.9131    1.9324 H   0  0  0  0  0  0  0  0  0  0  0  0
    7.7694   -1.8978    3.3542 H   0  0  0  0  0  0  0  0  0  0  0  0
    5.3970   -4.1694    6.9291 H   0  0  0  0  0  0  0  0  0  0  0  0
    5.3747   -5.2611    5.5234 H   0  0  0  0  0  0  0  0  0  0  0  0
    8.0621   -4.6206    6.1103 H   0  0  0  0  0  0  0  0  0  0  0  0
    5.1749   -6.3462    7.4834 H   0  0  0  0  0  0  0  0  0  0  0  0
    5.3861   -8.2998    8.9977 H   0  0  0  0  0  0  0  0  0  0  0  0
    9.5274   -8.0374    8.7538 H   0  0  0  0  0  0  0  0  0  0  0  0
  1  6  2  0  0  0  0
  1  2  1  0  0  0  0
  1 25  1  0  0  0  0
  2  3  2  0  0  0  0
  2 26  1  0  0  0  0
  3  4  1  0  0  0  0
  3 27  1  0  0  0  0
  4  5  2  0  0  0  0
  4  7  1  0  0  0  0
  5  6  1  0  0  0  0
  5 28  1  0  0  0  0
  6 29  1  0  0  0  0
  7  8  1  0  0  0  0
  7 30  1  0  0  0  0
  7 31  1  0  0  0  0
  8  9  1  0  0  0  0
  9 10  2  0  0  0  0
  9 11  1  0  0  0  0
 11 16  1  0  0  0  0
 11 12  1  0  0  0  0
 12 13  1  0  0  0  0
 12 32  1  0  0  0  0
 12 33  1  0  0  0  0
 13 14  1  0  0  0  0
 13 34  1  0  0  0  0
 13 35  1  0  0  0  0
 14 15  1  0  0  0  0
 14 17  1  0  0  0  0
 14 36  1  0  0  0  0
 15 16  1  0  0  0  0
 15 37  1  0  0  0  0
 15 38  1  0  0  0  0
 16 39  1  0  0  0  0
 16 40  1  0  0  0  0
 17 18  1  0  0  0  0
 17 41  1  0  0  0  0
 17 42  1  0  0  0  0
 18 19  1  0  0  0  0
 18 43  1  0  0  0  0
 19 24  2  0  0  0  0
 19 20  1  0  0  0  0
 20 21  2  0  0  0  0
 20 44  1  0  0  0  0
 21 22  1  0  0  0  0
 21 45  1  0  0  0  0
 22 23  2  0  0  0  0
 23 24  1  0  0  0  0
 23 46  1  0  0  0  0
M  END
$$$$
CHEMBL214784
  -OEChem-07121202273D

 22 23  0     0  0  0  0  0  0999 V2000
   -0.0167    1.3789    0.0096 C   0  0  0  0  0  0  0  0  0  0  0  0
    1.1807    2.0727    0.0019 C   0  0  0  0  0  0  0  0  0  0  0  0
    2.3726    1.3389   -0.0134 C   0  0  0  0  0  0  0  0  0  0  0  0
    2.3057   -0.0555   -0.0203 C   0  0  0  0  0  0  0  0  0  0  0  0
    1.1410   -0.6699   -0.0129 N   0  0  0  0  0  0  0  0  0  0  0  0
    0.0021   -0.0041    0.0020 C   0  0  0  0  0  0  0  0  0  0  0  0
    3.6797    2.0286   -0.0227 C   0  0  0  0  0  0  0  0  0  0  0  0
    4.8988    1.4273   -0.0431 C   0  0  0  0  0  0  0  0  0  0  0  0
    5.8598    2.4581   -0.0458 C   0  0  0  0  0  0  0  0  0  0  0  0
    5.1868    3.6252   -0.0271 C   0  0  0  0  0  0  0  0  0  0  0  0
    3.8698    3.3619   -0.0183 O   0  0  0  0  0  0  0  0  0  0  0  0
    5.8084    4.9980   -0.0219 C   0  0  0  0  0  0  0  0  0  0  0  0
    6.0376    5.5645   -1.7298 S   0  0  0  0  0  0  0  0  0  0  0  0
   -0.9559    1.9117    0.0259 H   0  0  0  0  0  0  0  0  0  0  0  0
    1.1952    3.1526    0.0072 H   0  0  0  0  0  0  0  0  0  0  0  0
    3.2168   -0.6352   -0.0321 H   0  0  0  0  0  0  0  0  0  0  0  0
   -0.9310   -0.5479    0.0084 H   0  0  0  0  0  0  0  0  0  0  0  0
    5.0933    0.3650   -0.0546 H   0  0  0  0  0  0  0  0  0  0  0  0
    6.9328    2.3358   -0.0596 H   0  0  0  0  0  0  0  0  0  0  0  0
    5.1537    5.6913    0.5061 H   0  0  0  0  0  0  0  0  0  0  0  0
    6.7750    4.9572    0.4802 H   0  0  0  0  0  0  0  0  0  0  0  0
    6.5914    6.7830   -1.5969 H   0  0  0  0  0  0  0  0  0  0  0  0
  1  6  2  0  0  0  0
  1  2  1  0  0  0  0
  1 14  1  0  0  0  0
  2  3  2  0  0  0  0
  2 15  1  0  0  0  0
  3  4  1  0  0  0  0
  3  7  1  0  0  0  0
  4  5  2  0  0  0  0
  4 16  1  0  0  0  0
  5  6  1  0  0  0  0
  6 17  1  0  0  0  0
  7 11  1  0  0  0  0
  7  8  2  0  0  0  0
  8  9  1  0  0  0  0
  8 18  1  0  0  0  0
  9 10  2  0  0  0  0
  9 19  1  0  0  0  0
 10 11  1  0  0  0  0
 10 12  1  0  0  0  0
 12 13  1  0  0  0  0
 12 20  1  0  0  0  0
 12 21  1  0  0  0  0
 13 22  1  0  0  0  0
M  END
$$$$
